% SET BOUNDARY MARKERS ACCORDING TO YOUR ICEMCFD PROJECT
MARKER_EULER= ( INNER_CIRCLE, OUTER_CIRCLE, 0,0 )
MARKER_FAR=( FARFIELD )
%
% MESH INPUT FILE
MESH_FILENAME=CylinderMesh.cgns
%
% MESH INPUT FILE FORMAT (SU2, CGNS, NETCDF_ASCII)
MESH_FORMAT= CGNS
%
% MESH OUTPUT FILE
MESH_OUT_FILENAME= CylinderMesh.su2
%
% SOME DUMMY PARAMETERS
DV_KIND= NO_DEFORMATION
DV_PARAM= ( 1.0 )

